sim-outorder: SimpleScalar/ARM Tool Set version 3.0 of November, 2000.
Copyright (c) 1994-2000 by Todd M. Austin.  All Rights Reserved.
This version of SimpleScalar is licensed for academic non-commercial use only.

sim: command line: sim-outorder -config simconfig/nocache-trace.cfg -containers:FullTraceOut dijkstra.trace.full /home/eugen/work/benchmarks/buildContainerBaseline/MIBench-dijkstra/dijkstra_small.arm /home/eugen/work/benchmarks/MIBench-dijkstra/input.dat 

sim: simulation started @ Mon Jun 30 18:08:08 2008, options follow:

sim-outorder: This simulator implements a very detailed out-of-order issue
superscalar processor with a two-level memory system and speculative
execution support.  This simulator is a performance simulator, tracking the
latency of all pipeline operations.

# -config                     # load configuration from a file
# -dumpconfig                 # dump configuration to a file
# -h                    false # print help message    
# -v                    false # verbose operation     
# -d                    false # enable debug message  
# -i                    false # start in Dlite debugger
-seed                       1 # random number generator seed (0 for timer seed)
# -q                    false # initialize and terminate immediately
# -chkpt               <null> # restore EIO trace execution from <fname>
# -redir:sim           <null> # redirect simulator output to file (non-interactive only)
# -redir:prog    simpletest.progoutput # redirect simulated program output to file
# -redir:trace         <null> # redirect simulation trace to file 
# -containers:traceFileOut simpletest.trace.out # this is for the first run, this is where the trace information is stored for the second run
# -containers:traceFileIn       <null> # this is the second run, after the trace data is gathered, the param is the trace file name
# -containers:compileTraceOut simpletest.trace.compiler # this information is used for the second compilation, it marks the functions that access heap memory
# -containers:FullTraceOut dijkstra.trace.full # this file has the full trace of functions and memory calls (it gets HUGE) use for debug only
-nice                       0 # simulator scheduling priority
-max:inst                   0 # maximum number of inst's to execute
# -ptracepipe               0 # The pipe for the ptrace communications
-profile                false # look for areas with significant IPCs
-fastfwd                    0 # number of insts skipped before timing starts
# -ptrace              <null> # generate pipetrace, i.e., <fname|stdout|stderr> <range>
-fetch:ifqsize              1 # instruction fetch queue size (in insts)
-fetch:mplat                3 # extra branch mis-prediction latency
-fetch:speed                1 # speed of front-end of machine relative to execution core
-bpred                  bimod # branch predictor type {nottaken|taken|perfect|bimod|2lev|comb}
-bpred:bimod     2048 # bimodal predictor config (<table size>)
-bpred:2lev      1 1024 8 0 # 2-level predictor config (<l1size> <l2size> <hist_size> <xor>)
-bpred:comb      1024 # combining predictor config (<meta_table_size>)
-bpred:ras                  8 # return address stack size (0 for no return stack)
-bpred:btb       512 4 # BTB config (<num_sets> <associativity>)
# -bpred:spec_update       <null> # speculative predictors update in {ID|WB} (default non-spec)
-decode:width               4 # instruction decode B/W (insts/cycle)
-issue:width                4 # instruction issue B/W (insts/cycle)
-issue:inorder           true # run pipeline with in-order issue
-issue:wrongpath        false # issue instructions down wrong execution paths
-commit:width               4 # instruction commit B/W (insts/cycle)
-ruu:size                  16 # register update unit (RUU) size
-lsq:size                   8 # load/store queue (LSQ) size
-lsq:perfect            false # perfect memory disambiguation
-cache:dl1               none # l1 data cache config, i.e., {<config>|none}
-cache:dl1lat               1 # l1 data cache hit latency (in cycles)
-cache:dl2               none # l2 data cache config, i.e., {<config>|none}
-cache:dl2lat               1 # l2 data cache hit latency (in cycles)
-cache:il1               none # l1 inst cache config, i.e., {<config>|dl1|dl2|none}
-cache:il1lat               1 # l1 instruction cache hit latency (in cycles)
-cache:il2               none # l2 instruction cache config, i.e., {<config>|dl2|none}
-cache:il2lat               1 # l2 instruction cache hit latency (in cycles)
-cache:flush            false # flush caches on system calls
-cache:icompress        false # convert 64-bit inst addresses to 32-bit inst equivalents
-mem:lat         15 2 # memory access latency (<first_chunk> <inter_chunk>)
-mem:width                  8 # memory access bus width (in bytes)
-mem:pipelined          false # memory accesses are fully pipelined
-tlb:itlb        itlb:16:4096:4:l # instruction TLB config, i.e., {<config>|none}
-tlb:dtlb        dtlb:32:4096:4:l # data TLB config, i.e., {<config>|none}
-tlb:lat                   30 # inst/data TLB miss latency (in cycles)
-res:ialu                   2 # total number of integer ALU's available
-res:imult                  1 # total number of integer multiplier/dividers available
-res:memport                1 # total number of memory system ports available (to CPU)
-res:fpalu                  1 # total number of floating point ALU's available
-res:fpmult                 1 # total number of floating point multiplier/dividers available
# -pcstat              <null> # profile stat(s) against text addr's (mult uses ok)
-bugcompat              false # operate in backward-compatible bugs mode (for testing only)

  Pipetrace range arguments are formatted as follows:

    {{@|#}<start>}:{{@|#|+}<end>}

  Both ends of the range are optional, if neither are specified, the entire
  execution is traced.  Ranges that start with a `@' designate an address
  range to be traced, those that start with an `#' designate a cycle count
  range.  All other range values represent an instruction count range.  The
  second argument, if specified with a `+', indicates a value relative
  to the first argument, e.g., 1000:+100 == 1000:1100.  Program symbols may
  be used in all contexts.

    Examples:   -ptrace FOO.trc #0:#1000
                -ptrace BAR.trc @2000:
                -ptrace BLAH.trc :1500
                -ptrace UXXE.trc :
                -ptrace FOOBAR.trc @main:+278

  Branch predictor configuration examples for 2-level predictor:
    Configurations:   N, M, W, X
      N   # entries in first level (# of shift register(s))
      W   width of shift register(s)
      M   # entries in 2nd level (# of counters, or other FSM)
      X   (yes-1/no-0) xor history and address for 2nd level index
    Sample predictors:
      GAg     : 1, W, 2^W, 0
      GAp     : 1, W, M (M > 2^W), 0
      PAg     : N, W, 2^W, 0
      PAp     : N, W, M (M == 2^(N+W)), 0
      gshare  : 1, W, 2^W, 1
  Predictor `comb' combines a bimodal and a 2-level predictor.

  The cache config parameter <config> has the following format:

    <name>:<nsets>:<bsize>:<assoc>:<repl>

    <name>   - name of the cache being defined
    <nsets>  - number of sets in the cache
    <bsize>  - block size of the cache
    <assoc>  - associativity of the cache
    <repl>   - block replacement strategy, 'l'-LRU, 'f'-FIFO, 'r'-random

    Examples:   -cache:dl1 dl1:4096:32:1:l
                -dtlb dtlb:128:4096:32:r

  Cache levels can be unified by pointing a level of the instruction cache
  hierarchy at the data cache hiearchy using the "dl1" and "dl2" cache
  configuration arguments.  Most sensible combinations are supported, e.g.,

    A unified l2 cache (il2 is pointed at dl2):
      -cache:il1 il1:128:64:1:l -cache:il2 dl2
      -cache:dl1 dl1:256:32:1:l -cache:dl2 ul2:1024:64:2:l

    Or, a fully unified cache hierarchy (il1 pointed at dl1):
      -cache:il1 dl1
      -cache:dl1 ul1:256:32:1:l -cache:dl2 ul2:1024:64:2:l



sim: ** starting performance simulation **
warning: invalid/unimplemented syscall 122, PC=0x00013060, winging it
warning: invalid/unimplemented syscall 221, PC=0x00013354, winging it
warning: invalid/unimplemented syscall 221, PC=0x00013354, winging it
warning: invalid/unimplemented syscall 221, PC=0x00013354, winging it
warning: invalid/unimplemented syscall 201, PC=0x00034f98, winging it
warning: invalid/unimplemented syscall 199, PC=0x00034f90, winging it
warning: invalid/unimplemented syscall 202, PC=0x00034fa8, winging it
warning: invalid/unimplemented syscall 200, PC=0x00034fa0, winging it
warning: invalid/unimplemented syscall 197, PC=0x000130a8, winging it
warning: invalid/unimplemented syscall 197, PC=0x000130a8, winging it
Shortest path is 1 in cost. Path is:  0 41 45 51 50
Shortest path is 0 in cost. Path is:  1 58 57 20 40 17 65 73 36 46 10 38 41 45 51
Shortest path is 1 in cost. Path is:  2 71 47 79 23 77 1 58 57 20 40 17 52
Shortest path is 2 in cost. Path is:  3 53
Shortest path is 1 in cost. Path is:  4 85 83 58 33 13 19 79 23 77 1 54
Shortest path is 3 in cost. Path is:  5 26 23 77 1 58 99 3 21 70 55
Shortest path is 3 in cost. Path is:  6 42 80 77 1 58 99 3 21 70 55 56
Shortest path is 0 in cost. Path is:  7 17 65 73 36 46 10 58 57
Shortest path is 0 in cost. Path is:  8 37 63 72 46 10 58
Shortest path is 1 in cost. Path is:  9 33 13 19 79 23 77 1 59
Shortest path is 0 in cost. Path is:  10 60
Shortest path is 5 in cost. Path is:  11 22 20 40 17 65 73 36 46 10 29 61
Shortest path is 0 in cost. Path is:  12 37 63 72 46 10 58 99 3 21 70 62
Shortest path is 0 in cost. Path is:  13 19 79 23 77 1 58 99 3 21 70 55 12 37 63
Shortest path is 1 in cost. Path is:  14 38 41 45 51 68 2 71 47 79 23 77 1 58 33 13 92 64
Shortest path is 1 in cost. Path is:  15 13 92 94 11 22 20 40 17 65
Shortest path is 3 in cost. Path is:  16 41 45 51 68 2 71 47 79 23 77 1 58 33 32 66
Shortest path is 0 in cost. Path is:  17 65 73 36 46 10 58 33 13 19 79 23 91 67
Shortest path is 1 in cost. Path is:  18 15 41 45 51 68
Shortest path is 2 in cost. Path is:  19 69
warning: invalid/unimplemented syscall 91, PC=0x000136b0, winging it

sim: ** simulation statistics **
sim_num_insn              102956421 # total number of instructions committed
sim_num_uops              159227592 # total number of UOPs executed
sim_avg_flowlen              1.5466 # uops per instruction
sim_num_refs               54086526 # total number of loads and stores committed
sim_num_loads              47304092 # total number of loads committed
sim_num_stores         6782434.0000 # total number of stores committed
sim_num_branches           14842992 # total number of branches committed
sim_elapsed_time               1987 # total simulation time in seconds
sim_inst_rate            51815.0081 # simulation speed (in insts/sec)
sim_total_insn            159227591 # total number of instructions executed
sim_total_refs             54086526 # total number of loads and stores executed
sim_total_loads            47304092 # total number of loads executed
sim_total_stores       6782434.0000 # total number of stores executed
sim_total_branches         14842992 # total number of branches executed
sim_cycle                 141279683 # total simulation time in cycles
sim_IPC                      0.7287 # instructions per cycle
sim_CPI                      1.3722 # cycles per instruction
sim_exec_BW                  1.1270 # total instructions (mis-spec + committed) per cycle
sim_IPB                      6.9364 # instruction per branch
IFQ_count                 140024840 # cumulative IFQ occupancy
IFQ_fcount                140024840 # cumulative IFQ full count
ifq_occupancy                0.9911 # avg IFQ occupancy (insn's)
ifq_rate                     1.1270 # avg IFQ dispatch rate (insn/cycle)
ifq_latency                  0.8794 # avg IFQ occupant latency (cycle's)
ifq_full                     0.9911 # fraction of time (cycle's) IFQ was full
RUU_count                 336709928 # cumulative RUU occupancy
RUU_fcount                       28 # cumulative RUU full count
ruu_occupancy                2.3833 # avg RUU occupancy (insn's)
ruu_rate                     1.1270 # avg RUU dispatch rate (insn/cycle)
ruu_latency                  2.1146 # avg RUU occupant latency (cycle's)
ruu_full                     0.0000 # fraction of time (cycle's) RUU was full
LSQ_count                 194421482 # cumulative LSQ occupancy
LSQ_fcount                   373908 # cumulative LSQ full count
lsq_occupancy                1.3761 # avg LSQ occupancy (insn's)
lsq_rate                     1.1270 # avg LSQ dispatch rate (insn/cycle)
lsq_latency                  1.2210 # avg LSQ occupant latency (cycle's)
lsq_full                     0.0026 # fraction of time (cycle's) LSQ was full
sim_slip                  690359001 # total number of slip cycles
avg_sim_slip                 6.7054 # the average slip between issue and retirement
bpred_bimod.lookups        14856124 # total number of bpred lookups
bpred_bimod.updates        14842992 # total number of updates
bpred_bimod.addr_hits      14675496 # total number of address-predicted hits
bpred_bimod.dir_hits       14675705 # total number of direction-predicted hits (includes addr-hits)
bpred_bimod.misses           167287 # total number of misses
bpred_bimod.jr_hits               0 # total number of address-predicted hits for JR's
bpred_bimod.jr_seen               0 # total number of JR's seen
bpred_bimod.jr_non_ras_hits.PP            0 # total number of address-predicted hits for non-RAS JR's
bpred_bimod.jr_non_ras_seen.PP            0 # total number of non-RAS JR's seen
bpred_bimod.bpred_addr_rate    0.9887 # branch address-prediction rate (i.e., addr-hits/updates)
bpred_bimod.bpred_dir_rate    0.9887 # branch direction-prediction rate (i.e., all-hits/updates)
bpred_bimod.bpred_jr_rate <error: divide by zero> # JR address-prediction rate (i.e., JR addr-hits/JRs seen)
bpred_bimod.bpred_jr_non_ras_rate.PP <error: divide by zero> # non-RAS JR addr-pred rate (ie, non-RAS JR hits/JRs seen)
bpred_bimod.retstack_pushes       238677 # total number of address pushed onto ret-addr stack
bpred_bimod.retstack_pops            0 # total number of address popped off of ret-addr stack
bpred_bimod.used_ras.PP            0 # total number of RAS predictions used
bpred_bimod.ras_hits.PP            0 # total number of RAS hits
bpred_bimod.ras_rate.PP <error: divide by zero> # RAS prediction rate (i.e., RAS hits/used RAS)
itlb.accesses             103103191 # total number of accesses
itlb.hits                 103103160 # total number of hits
itlb.misses                      31 # total number of misses
itlb.replacements                 0 # total number of replacements
itlb.writebacks                   0 # total number of writebacks
itlb.invalidations                0 # total number of invalidations
itlb.miss_rate               0.0000 # miss rate (i.e., misses/ref)
itlb.repl_rate               0.0000 # replacement rate (i.e., repls/ref)
itlb.wb_rate                 0.0000 # writeback rate (i.e., wrbks/ref)
itlb.inv_rate                0.0000 # invalidation rate (i.e., invs/ref)
dtlb.accesses              54017380 # total number of accesses
dtlb.hits                  54017334 # total number of hits
dtlb.misses                      46 # total number of misses
dtlb.replacements                 0 # total number of replacements
dtlb.writebacks                   0 # total number of writebacks
dtlb.invalidations                0 # total number of invalidations
dtlb.miss_rate               0.0000 # miss rate (i.e., misses/ref)
dtlb.repl_rate               0.0000 # replacement rate (i.e., repls/ref)
dtlb.wb_rate                 0.0000 # writeback rate (i.e., wrbks/ref)
dtlb.inv_rate                0.0000 # invalidation rate (i.e., invs/ref)
sim_invalid_addrs             69146 # total non-speculative bogus addresses seen (debug var)
ld_text_base           0x000080b4 # program text (code) segment base
ld_text_bound          0x00055e50 # program text (code) segment bound
ld_text_size                 318876 # program text (code) size in bytes
ld_data_base           0x00055e50 # program initialized data segment base
ld_data_bound          0x0007bfc8 # program initialized data segment bound
ld_data_size                 156024 # program init'ed `.data' and uninit'ed `.bss' size in bytes
ld_stack_base          0xc0000000 # program stack segment base (highest address in stack)
ld_stack_size                 16384 # program initial stack size
ld_prog_entry          0x000080d0 # program entry point (initial PC)
ld_environ_base        0xbfffc000 # program environment base address address
ld_target_big_endian              0 # target executable endian-ness, non-zero if big endian
mem.page_count                  117 # total number of pages allocated
mem.page_mem                   468k # total size of memory pages allocated
mem.ptab_misses                 117 # total first level page table misses
mem.ptab_accesses         637571796 # total page table accesses
mem.ptab_miss_rate           0.0000 # first level page table miss rate

