sim-outorder: SimpleScalar/ARM Tool Set version 3.0 of November, 2000.
Copyright (c) 1994-2000 by Todd M. Austin.  All Rights Reserved.
This version of SimpleScalar is licensed for academic non-commercial use only.

sim: command line: /home/eugen/simplescalar-olga-arm-testing/sim-outorder -config simconfig/cache-trace.cfg -containers:groupingOut simpletest.grouping.5.out -containers:groupingOrder 5 simpletest.ss 

sim: simulation started @ Fri Sep 19 09:25:49 2008, options follow:

sim-outorder: This simulator implements a very detailed out-of-order issue
superscalar processor with a two-level memory system and speculative
execution support.  This simulator is a performance simulator, tracking the
latency of all pipeline operations.

# -config                     # load configuration from a file
# -dumpconfig                 # dump configuration to a file
# -h                    false # print help message    
# -v                    false # verbose operation     
# -d                    false # enable debug message  
# -i                    false # start in Dlite debugger
-seed                       1 # random number generator seed (0 for timer seed)
# -q                    false # initialize and terminate immediately
# -chkpt               <null> # restore EIO trace execution from <fname>
# -redir:sim           <null> # redirect simulator output to file (non-interactive only)
# -redir:prog    simpletest.progoutput # redirect simulated program output to file
# -redir:trace         <null> # redirect simulation trace to file 
# -containers:traceFileOut simpletest.trace.out # this is for the first run, this is where the trace information is stored for the second run
# -containers:traceFileIn       <null> # this is the second run, after the trace data is gathered, the param is the trace file name
# -containers:compileTraceOut simpletest.trace.compiler # this information is used for the second compilation, it marks the functions that access heap memory
# -containers:FullTraceOut simpletest.trace.full # this file has the full trace of functions and memory calls (it gets HUGE) use for debug only
# -containers:groupingIn       <null> # this file has grouping of functions into containers, if not specified every function will be placed into individual containers
# -containers:groupingOut simpletest.grouping.5.out # this file will create a grouping for the benchmark
-containers:groupingOrder            5 # How many functions to include in a group ( NOT IMPLEMENTED YET )
# -containers:groupingTraceOut       <null> # this file writes the trace out for the grouping of functions into containers
# -containers:groupingTraceIn       <null> # this is the second run, after the trace data is gathered, the param is the trace file name for the container grouping
# -containers:groupingPenalties        false # if set to true the container groups penalties are used instead of the individual functions ( which is the default)
-nice                       0 # simulator scheduling priority
-max:inst                   0 # maximum number of inst's to execute
# -ptracepipe               0 # The pipe for the ptrace communications
-profile                false # look for areas with significant IPCs
-fastfwd                    0 # number of insts skipped before timing starts
# -ptrace              <null> # generate pipetrace, i.e., <fname|stdout|stderr> <range>
-fetch:ifqsize              1 # instruction fetch queue size (in insts)
-fetch:mplat                3 # extra branch mis-prediction latency
-fetch:speed                1 # speed of front-end of machine relative to execution core
-bpred                  bimod # branch predictor type {nottaken|taken|perfect|bimod|2lev|comb}
-bpred:bimod     2048 # bimodal predictor config (<table size>)
-bpred:2lev      1 1024 8 0 # 2-level predictor config (<l1size> <l2size> <hist_size> <xor>)
-bpred:comb      1024 # combining predictor config (<meta_table_size>)
-bpred:ras                  8 # return address stack size (0 for no return stack)
-bpred:btb       512 4 # BTB config (<num_sets> <associativity>)
# -bpred:spec_update       <null> # speculative predictors update in {ID|WB} (default non-spec)
-decode:width               4 # instruction decode B/W (insts/cycle)
-issue:width                4 # instruction issue B/W (insts/cycle)
-issue:inorder           true # run pipeline with in-order issue
-issue:wrongpath        false # issue instructions down wrong execution paths
-commit:width               4 # instruction commit B/W (insts/cycle)
-ruu:size                  16 # register update unit (RUU) size
-lsq:size                   8 # load/store queue (LSQ) size
-lsq:perfect            false # perfect memory disambiguation
-cache:dl1       dl1:16:32:64:l # l1 data cache config, i.e., {<config>|none}
-cache:dl1lat               1 # l1 data cache hit latency (in cycles)
-cache:dl2               none # l2 data cache config, i.e., {<config>|none}
-cache:dl2lat               1 # l2 data cache hit latency (in cycles)
-cache:il1       il1:32:32:32:l # l1 inst cache config, i.e., {<config>|dl1|dl2|none}
-cache:cont_il1  il1:512:32:1:l # l1 container permission cache config, i.e., {<config>|none}
-cache:il1lat               1 # l1 instruction cache hit latency (in cycles)
-cache:il2               none # l2 instruction cache config, i.e., {<config>|dl2|none}
-cache:il2lat               1 # l2 instruction cache hit latency (in cycles)
-cache:flush            false # flush caches on system calls
-cache:icompress        false # convert 64-bit inst addresses to 32-bit inst equivalents
-mem:lat         15 2 # memory access latency (<first_chunk> <inter_chunk>)
-mem:width                  8 # memory access bus width (in bytes)
-mem:pipelined          false # memory accesses are fully pipelined
-tlb:itlb        itlb:16:4096:4:l # instruction TLB config, i.e., {<config>|none}
-tlb:dtlb        dtlb:32:4096:4:l # data TLB config, i.e., {<config>|none}
-tlb:lat                   30 # inst/data TLB miss latency (in cycles)
-res:ialu                   2 # total number of integer ALU's available
-res:imult                  1 # total number of integer multiplier/dividers available
-res:memport                1 # total number of memory system ports available (to CPU)
-res:fpalu                  1 # total number of floating point ALU's available
-res:fpmult                 1 # total number of floating point multiplier/dividers available
# -pcstat              <null> # profile stat(s) against text addr's (mult uses ok)
-bugcompat              false # operate in backward-compatible bugs mode (for testing only)

  Pipetrace range arguments are formatted as follows:

    {{@|#}<start>}:{{@|#|+}<end>}

  Both ends of the range are optional, if neither are specified, the entire
  execution is traced.  Ranges that start with a `@' designate an address
  range to be traced, those that start with an `#' designate a cycle count
  range.  All other range values represent an instruction count range.  The
  second argument, if specified with a `+', indicates a value relative
  to the first argument, e.g., 1000:+100 == 1000:1100.  Program symbols may
  be used in all contexts.

    Examples:   -ptrace FOO.trc #0:#1000
                -ptrace BAR.trc @2000:
                -ptrace BLAH.trc :1500
                -ptrace UXXE.trc :
                -ptrace FOOBAR.trc @main:+278

  Branch predictor configuration examples for 2-level predictor:
    Configurations:   N, M, W, X
      N   # entries in first level (# of shift register(s))
      W   width of shift register(s)
      M   # entries in 2nd level (# of counters, or other FSM)
      X   (yes-1/no-0) xor history and address for 2nd level index
    Sample predictors:
      GAg     : 1, W, 2^W, 0
      GAp     : 1, W, M (M > 2^W), 0
      PAg     : N, W, 2^W, 0
      PAp     : N, W, M (M == 2^(N+W)), 0
      gshare  : 1, W, 2^W, 1
  Predictor `comb' combines a bimodal and a 2-level predictor.

  The cache config parameter <config> has the following format:

    <name>:<nsets>:<bsize>:<assoc>:<repl>

    <name>   - name of the cache being defined
    <nsets>  - number of sets in the cache
    <bsize>  - block size of the cache
    <assoc>  - associativity of the cache
    <repl>   - block replacement strategy, 'l'-LRU, 'f'-FIFO, 'r'-random

    Examples:   -cache:dl1 dl1:4096:32:1:l
                -dtlb dtlb:128:4096:32:r

  Cache levels can be unified by pointing a level of the instruction cache
  hierarchy at the data cache hiearchy using the "dl1" and "dl2" cache
  configuration arguments.  Most sensible combinations are supported, e.g.,

    A unified l2 cache (il2 is pointed at dl2):
      -cache:il1 il1:128:64:1:l -cache:il2 dl2
      -cache:dl1 dl1:256:32:1:l -cache:dl2 ul2:1024:64:2:l

    Or, a fully unified cache hierarchy (il1 pointed at dl1):
      -cache:il1 dl1
      -cache:dl1 ul1:256:32:1:l -cache:dl2 ul2:1024:64:2:l



sim: ** starting performance simulation **
warning: cache: access error: access spans block, addr 0x000080d4
warning: invalid/unimplemented syscall 122, PC=0x0000f1f0, winging it
warning: invalid/unimplemented syscall 221, PC=0x0000f3c4, winging it
warning: invalid/unimplemented syscall 221, PC=0x0000f3c4, winging it
warning: invalid/unimplemented syscall 221, PC=0x0000f3c4, winging it
warning: invalid/unimplemented syscall 201, PC=0x0001faf8, winging it
warning: invalid/unimplemented syscall 199, PC=0x0001faf0, winging it
warning: invalid/unimplemented syscall 202, PC=0x0001fb08, winging it
warning: invalid/unimplemented syscall 200, PC=0x0001fb00, winging it
warning: invalid/unimplemented syscall 197, PC=0x0000f238, winging it
aafooaafooaafooaafooaafooaafooaafooaafooaafooaafooaafoowarning: invalid/unimplemented syscall 91, PC=0x0000f6b0, winging it

sim: ** simulation statistics **
sim_num_insn                  13045 # total number of instructions committed
sim_num_uops                  21433 # total number of UOPs executed
sim_avg_flowlen              1.6430 # uops per instruction
sim_num_refs                   5793 # total number of loads and stores committed
sim_num_loads                  3928 # total number of loads committed
sim_num_stores            1865.0000 # total number of stores committed
sim_num_branches               2302 # total number of branches committed
sim_elapsed_time                  1 # total simulation time in seconds
sim_inst_rate            13045.0000 # simulation speed (in insts/sec)
sim_total_insn                21432 # total number of instructions executed
sim_total_refs                 5793 # total number of loads and stores executed
sim_total_loads                3928 # total number of loads executed
sim_total_stores          1865.0000 # total number of stores executed
sim_total_branches             2302 # total number of branches executed
sim_cycle                     34862 # total simulation time in cycles
sim_IPC                      0.3742 # instructions per cycle
sim_CPI                      2.6724 # cycles per instruction
sim_exec_BW                  0.6148 # total instructions (mis-spec + committed) per cycle
sim_IPB                      5.6668 # instruction per branch
IFQ_count                     20798 # cumulative IFQ occupancy
IFQ_fcount                    20798 # cumulative IFQ full count
ifq_occupancy                0.5966 # avg IFQ occupancy (insn's)
ifq_rate                     0.6148 # avg IFQ dispatch rate (insn/cycle)
ifq_latency                  0.9704 # avg IFQ occupant latency (cycle's)
ifq_full                     0.5966 # fraction of time (cycle's) IFQ was full
RUU_count                     59294 # cumulative RUU occupancy
RUU_fcount                        0 # cumulative RUU full count
ruu_occupancy                1.7008 # avg RUU occupancy (insn's)
ruu_rate                     0.6148 # avg RUU dispatch rate (insn/cycle)
ruu_latency                  2.7666 # avg RUU occupant latency (cycle's)
ruu_full                     0.0000 # fraction of time (cycle's) RUU was full
LSQ_count                     28775 # cumulative LSQ occupancy
LSQ_fcount                      343 # cumulative LSQ full count
lsq_occupancy                0.8254 # avg LSQ occupancy (insn's)
lsq_rate                     0.6148 # avg LSQ dispatch rate (insn/cycle)
lsq_latency                  1.3426 # avg LSQ occupant latency (cycle's)
lsq_full                     0.0098 # fraction of time (cycle's) LSQ was full
sim_slip                     123427 # total number of slip cycles
avg_sim_slip                 9.4616 # the average slip between issue and retirement
bpred_bimod.lookups            2313 # total number of bpred lookups
bpred_bimod.updates            2302 # total number of updates
bpred_bimod.addr_hits          1961 # total number of address-predicted hits
bpred_bimod.dir_hits           2067 # total number of direction-predicted hits (includes addr-hits)
bpred_bimod.misses              235 # total number of misses
bpred_bimod.jr_hits               0 # total number of address-predicted hits for JR's
bpred_bimod.jr_seen               0 # total number of JR's seen
bpred_bimod.jr_non_ras_hits.PP            0 # total number of address-predicted hits for non-RAS JR's
bpred_bimod.jr_non_ras_seen.PP            0 # total number of non-RAS JR's seen
bpred_bimod.bpred_addr_rate    0.8519 # branch address-prediction rate (i.e., addr-hits/updates)
bpred_bimod.bpred_dir_rate    0.8979 # branch direction-prediction rate (i.e., all-hits/updates)
bpred_bimod.bpred_jr_rate <error: divide by zero> # JR address-prediction rate (i.e., JR addr-hits/JRs seen)
bpred_bimod.bpred_jr_non_ras_rate.PP <error: divide by zero> # non-RAS JR addr-pred rate (ie, non-RAS JR hits/JRs seen)
bpred_bimod.retstack_pushes          232 # total number of address pushed onto ret-addr stack
bpred_bimod.retstack_pops            0 # total number of address popped off of ret-addr stack
bpred_bimod.used_ras.PP            0 # total number of RAS predictions used
bpred_bimod.ras_hits.PP            0 # total number of RAS hits
bpred_bimod.ras_rate.PP <error: divide by zero> # RAS prediction rate (i.e., RAS hits/used RAS)
il1.accesses                  13583 # total number of accesses
il1.hits                      13211 # total number of hits
il1.misses                      372 # total number of misses
il1.replacements                  0 # total number of replacements
il1.writebacks                    0 # total number of writebacks
il1.invalidations                 0 # total number of invalidations
il1.miss_rate                0.0274 # miss rate (i.e., misses/ref)
il1.repl_rate                0.0000 # replacement rate (i.e., repls/ref)
il1.wb_rate                  0.0000 # writeback rate (i.e., wrbks/ref)
il1.inv_rate                 0.0000 # invalidation rate (i.e., invs/ref)
dl1.accesses                   5788 # total number of accesses
dl1.hits                       5537 # total number of hits
dl1.misses                      251 # total number of misses
dl1.replacements                  0 # total number of replacements
dl1.writebacks                    0 # total number of writebacks
dl1.invalidations                 0 # total number of invalidations
dl1.miss_rate                0.0434 # miss rate (i.e., misses/ref)
dl1.repl_rate                0.0000 # replacement rate (i.e., repls/ref)
dl1.wb_rate                  0.0000 # writeback rate (i.e., wrbks/ref)
dl1.inv_rate                 0.0000 # invalidation rate (i.e., invs/ref)
itlb.accesses                 13583 # total number of accesses
itlb.hits                     13562 # total number of hits
itlb.misses                      21 # total number of misses
itlb.replacements                 0 # total number of replacements
itlb.writebacks                   0 # total number of writebacks
itlb.invalidations                0 # total number of invalidations
itlb.miss_rate               0.0015 # miss rate (i.e., misses/ref)
itlb.repl_rate               0.0000 # replacement rate (i.e., repls/ref)
itlb.wb_rate                 0.0000 # writeback rate (i.e., wrbks/ref)
itlb.inv_rate                0.0000 # invalidation rate (i.e., invs/ref)
dtlb.accesses                  5793 # total number of accesses
dtlb.hits                      5771 # total number of hits
dtlb.misses                      22 # total number of misses
dtlb.replacements                 0 # total number of replacements
dtlb.writebacks                   0 # total number of writebacks
dtlb.invalidations                0 # total number of invalidations
dtlb.miss_rate               0.0038 # miss rate (i.e., misses/ref)
dtlb.repl_rate               0.0000 # replacement rate (i.e., repls/ref)
dtlb.wb_rate                 0.0000 # writeback rate (i.e., wrbks/ref)
dtlb.inv_rate                0.0000 # invalidation rate (i.e., invs/ref)
sim_invalid_addrs                 0 # total non-speculative bogus addresses seen (debug var)
ld_text_base           0x000080b4 # program text (code) segment base
ld_text_bound          0x00055870 # program text (code) segment bound
ld_text_size                 317372 # program text (code) size in bytes
ld_data_base           0x00055870 # program initialized data segment base
ld_data_bound          0x00069e48 # program initialized data segment bound
ld_data_size                  83416 # program init'ed `.data' and uninit'ed `.bss' size in bytes
ld_stack_base          0xc0000000 # program stack segment base (highest address in stack)
ld_stack_size                 16384 # program initial stack size
ld_prog_entry          0x000080d0 # program entry point (initial PC)
ld_environ_base        0xbfffc000 # program environment base address address
ld_target_big_endian              0 # target executable endian-ness, non-zero if big endian
mem.page_count                  102 # total number of pages allocated
mem.page_mem                   408k # total size of memory pages allocated
mem.ptab_misses                 102 # total first level page table misses
mem.ptab_accesses            862276 # total page table accesses
mem.ptab_miss_rate           0.0001 # first level page table miss rate
callTraceGetNeighbourNextMax  [185] [malloc] lessThan 16
[node,i]=[185,124] [malloc,getpagesize]=1
[i,node]=[337,185] [_dl_init_paths,malloc]=2
[i,node]=[415,185] [__register_atfork,malloc]=3
[i,node]=[588,185] [foo,malloc]=11
callTraceGetNeighbourNextMax  [545] [_int_malloc] lessThan 16
[node,i]=[545,24] [_int_malloc,__default_morecore]=2
3.WE CHOSE: 588 foo 11

callTraceGetNeighbourNextMax  [185] [malloc] lessThan 11
[node,i]=[185,124] [malloc,getpagesize]=1
[i,node]=[337,185] [_dl_init_paths,malloc]=2
[i,node]=[415,185] [__register_atfork,malloc]=3
callTraceGetNeighbourNextMax  [545] [_int_malloc] lessThan 11
[node,i]=[545,24] [_int_malloc,__default_morecore]=2
callTraceGetNeighbourNextMax  [588] [foo] lessThan 11
[i,node]=[476,588] [main,foo]=1
[i,node]=[659,588] [bar,foo]=10
4.WE CHOSE: 659 bar 10

callTraceGetNeighbourNextMax  [185] [malloc] lessThan 10
[node,i]=[185,124] [malloc,getpagesize]=1
[i,node]=[337,185] [_dl_init_paths,malloc]=2
[i,node]=[415,185] [__register_atfork,malloc]=3
callTraceGetNeighbourNextMax  [545] [_int_malloc] lessThan 10
[node,i]=[545,24] [_int_malloc,__default_morecore]=2
callTraceGetNeighbourNextMax  [588] [foo] lessThan 10
[i,node]=[476,588] [main,foo]=1
callTraceGetNeighbourNextMax  [659] [bar] lessThan 10
[i,node]=[476,659] [main,bar]=1
5.WE CHOSE: 415 __register_atfork 3

callTraceGetNeighbourNextMax  [37] [printf] lessThan 11
callTraceGetNeighbourNextMax  [645] [_IO_vfprintf] lessThan 11

callTraceGetNeighbourNextMax  [91] [__libc_fcntl] lessThan 6
[i,node]=[292,91] [__libc_check_standard_fds,__libc_fcntl]=3
callTraceGetNeighbourNextMax  [632] [__errno_location] lessThan 6
[i,node]=[85,632] [munmap,__errno_location]=1
[i,node]=[292,632] [__libc_check_standard_fds,__errno_location]=3
3.WE CHOSE: 292 __libc_check_standard_fds 3

callTraceGetNeighbourNextMax  [91] [__libc_fcntl] lessThan 3
callTraceGetNeighbourNextMax  [292] [__libc_check_standard_fds] lessThan 3
[i,node]=[662,292] [__libc_start_main,__libc_check_standard_fds]=1
callTraceGetNeighbourNextMax  [632] [__errno_location] lessThan 3
[i,node]=[85,632] [munmap,__errno_location]=1
4.WE CHOSE: 662 __libc_start_main 1

callTraceGetNeighbourNextMax  [91] [__libc_fcntl] lessThan 1
callTraceGetNeighbourNextMax  [292] [__libc_check_standard_fds] lessThan 1
callTraceGetNeighbourNextMax  [632] [__errno_location] lessThan 1
callTraceGetNeighbourNextMax  [662] [__libc_start_main] lessThan 1

callTraceGetNeighbourNextMax  [103] [getenv] lessThan 6
[i,node]=[175,103] [_dl_non_dynamic_init,getenv]=2
[i,node]=[337,103] [_dl_init_paths,getenv]=4
callTraceGetNeighbourNextMax  [663] [strlen] lessThan 6
3.WE CHOSE: 337 _dl_init_paths 4

callTraceGetNeighbourNextMax  [103] [getenv] lessThan 4
[i,node]=[175,103] [_dl_non_dynamic_init,getenv]=2
callTraceGetNeighbourNextMax  [337] [_dl_init_paths] lessThan 4
[node,i]=[337,47] [_dl_init_paths,_dl_important_hwcaps]=1
[node,i]=[337,185] [_dl_init_paths,malloc]=2
callTraceGetNeighbourNextMax  [663] [strlen] lessThan 4
4.WE CHOSE: 175 _dl_non_dynamic_init 2

callTraceGetNeighbourNextMax  [103] [getenv] lessThan 2
callTraceGetNeighbourNextMax  [175] [_dl_non_dynamic_init] lessThan 2
[node,i]=[175,124] [_dl_non_dynamic_init,getpagesize]=1
callTraceGetNeighbourNextMax  [337] [_dl_init_paths] lessThan 2
[node,i]=[337,47] [_dl_init_paths,_dl_important_hwcaps]=1
callTraceGetNeighbourNextMax  [663] [strlen] lessThan 2
5.WE CHOSE: 124 getpagesize 1

callTraceGetNeighbourNextMax  [138] [_IO_funlockfile] lessThan 3
callTraceGetNeighbourNextMax  [382] [_IO_flush_all_lockp] lessThan 3
[node,i]=[382,357] [_IO_flush_all_lockp,_IO_file_overflow]=1
3.WE CHOSE: 357 _IO_file_overflow 1

callTraceGetNeighbourNextMax  [138] [_IO_funlockfile] lessThan 1
callTraceGetNeighbourNextMax  [357] [_IO_file_overflow] lessThan 1
callTraceGetNeighbourNextMax  [382] [_IO_flush_all_lockp] lessThan 1

callTraceGetNeighbourNextMax  [24] [__default_morecore] lessThan 2
callTraceGetNeighbourNextMax  [454] [sbrk] lessThan 2

callTraceGetNeighbourNextMax  [49] [_IO_new_file_xsputn] lessThan 1
callTraceGetNeighbourNextMax  [150] [_IO_default_xs
putn] lessThan 1

callTraceGetNeighbourNextMax  [62] [_IO_file_write] lessThan 1
callTraceGetNeighbourNextMax  [95] [__write] lessThan 1

callTraceGetNeighbourNextMax  [64] [__init_misc] lessThan 1
callTraceGetNeighbourNextMax  [289] [strrchr] lessThan 1

callTraceGetNeighbourNextMax  [53] [_IO_file_sync] lessThan 1
callTraceGetNeighbourNextMax  [156] [_IO_default_setbuf] lessThan 1

callTraceGetNeighbourNextMax  [217] [__libc_csu_fini] lessThan 1
callTraceGetNeighbourNextMax  [530] [_fini] lessThan 1

callTraceGetNeighbourNextMax  [33] [getgid] lessThan 1
callTraceGetNeighbourNextMax  [220] [__libc_init_secure] lessThan 1

callTraceGetNeighbourNextMax  [298] [_IO_file_stat] lessThan 1
callTraceGetNeighbourNextMax  [362] [___fxstat64] lessThan 1

callTraceGetNeighbourNextMax  [230] [_IO_file_setbuf] lessThan 1
callTraceGetNeighbourNextMax  [340] [_IO_cleanup] lessThan 1

callTraceGetNeighbourNextMax  [384] [__libc_init_first] lessThan 1
callTraceGetNeighbourNextMax  [652] [__setfpucw] lessThan 1

callTraceGetNeighbourNextMax  [212] [__new_exitfn] lessThan 1
callTraceGetNeighbourNextMax  [425] [__cxa_atexit] lessThan 1

callTraceGetNeighbourNextMax  [269] [_init] lessThan 1
callTraceGetNeighbourNextMax  [461] [__libc_csu_init] lessThan 1

callTraceGetNeighbourNextMax  [85] [munmap] lessThan 1
callTraceGetNeighbourNextMax  [529] [_IO_setb] lessThan 1

callTraceGetNeighbourNextMax  [98] [__mmap] lessThan 1
callTraceGetNeighbourNextMax  [543] [_IO_file_doallocate] lessThan 1

callTraceGetNeighbourNextMax  [256] [_Exit] lessThan 1
callTraceGetNeighbourNextMax  [635] [exit] lessThan 1

